
 $I+1=xBd,I7 WPZ<)۝:D_a;gl-mwv{CJ_ǣj"HCRT4_|5ho!wP%Y8<)>e#ֶUsA֙Ց;*_ߴdXYmlawIڥGr6ex6x+ւ9 1u^g<HI8?`~皯[Z>Jcl3J1P.:.?H?r0 uկ[gW2'F҇=Mp"HVĤ}XaԭO0O/{R%݃x{tEL<2i[pLx$JZh}4O!$-T/D&JL+jX@(|ܨS+ʙ< EQ?DvOJj'!KtrEHS^$RR,EQg㏪H#jZ!)?E zyMe[0ښF-~F@qţ FQ gnЫ;@j^&;[8^x[}%¨f2Iw/CqU%s>nS1^띾&É{3%_m`\^M^pߥ^wx~qu^KPe+..L57+jD,nhr8C\+v4%ͳ.5`G*th5L&EOĜfB8cAXEg P;ۘQ.1ex8Ti;K.<cul)5@Nqxi,Vdd<L6TJ6m1{x僊9ֵt͜KI*<jxHF-,,}IA/"7xLKt8qg?@VlbW(Oм=tsd7QU,xϖ9b#ci-+AD>n}XY"R{s-gi+;3B")7=a,n硌zSKb8|]3&2ƞ9`|XXq΢཰ VZ2ɍZxrLׯWyWQvFz+O42²wc]ܭd~&ؕ#Zh#rZeak6@`dMg1$n(W6E`6S`8CrصgmWzW-x#cdݎ$ IUTou(Sz3<n[&'VX(J!E(cEE;&Ae:.Zǟd\C>\x$W¶W՝!FW\WQduvM&~ Rm袁5#Y㊡8H60^OT98yjgp~eef(-3wnJTc"cV0κlؿvx6B~9-ҡ"[5~Myӫ.!i| [\8|Tm{wIm2uV׻JO`xt`iYLSW5[X.xΆ7Sx <hѸGIڂE26F}I? "ozRI!}A% P(Uv4)<閟?UY6"\{V^B7Ia=HD3پ1uK5{<N>W39܅TuAgx_׋`59AJ.o,޺Wq&Wq2G\H<8*kԫYxnATӰ=mn n-ӬMobhQ9;aR"+3v>.Ͻߙ6Rv+) gJ0FH1/٢J<zⅿc_fF} !,"-uw|A9hEn,!7@NH=V;v[pDCP#\a9Y:b0rU]!wJ^/+OqgZ.c؜2KxN8#Xҩ~hTG\II׼"Xu<64%<h%Υ*ay7Td+p?mdYc4P%ȵ#,Z-F*~dcbnXrLB{S*iS@?AnV,hi3+Hopk^e6jfқ, X9./4yaIg07Tb3S9 dҍO<)cE.ޑO1p.nt޾8T3Y<AGH6f N2-cυwlءg6PխQVvAKzn<CGtl͢r0%1q`oa=4;Oǉnz"J}JmٌVTȖ W*t~@b \Q*=bϬ?shEPX<#Rƥd;?k뜔c+ {_Z$ 6;[FԎLFԴ644FW3'Z<",h=pc P~Jr~Hi[ΟMT3DkARǷ;O۳GKRAǿTH^F Ϭ# @#!6o<.}#Sbm%.n[_;z1;2g<mZ36d)CׂS!A=/cUT^ro/ .UlY%>0+he;ݥRzHf\TIS GY?oҘJbQZrp{L.Ca0]BQXQC9KyJ'{"tIBp`uCؠwKo8Xhc^Z>d_v`@RzͼPi5 9<nCKO5zJX6^-`X/|aJ<$7{Ҍfz_6!-nVFkC'I^pECx$ "B8_vX)yxC:J6gC37HF/ x-;+̺v,'/oÊ u`Ïf<mLcXHc;<YK|KtHa@&(81q.Rqzճ9W=s"46ێ7 -ܮoJ G;y.jP?J#K? {ٖS]DyYaJWMp{QfN1FvH`KlzOئmU=Ů0q~gǺt*r(̦"\^"lAG#$ZE9B2j+=-؉{&@d]䐀CSTGғѓYQXRdw%)I<PCy׺[+k!2NޥaohCHhPϤ5+{ ?ېtGԹ͔Zt05+eAT3;~gQJzj% dgo<\݉րL5AwkitLn'MX2srĞ: WSyBma?&:<SܸMHzH-o##gtLj[fqpN R%%gud*ã Вp9־P$/p&~?O *$ =Ta61)26~ݛx[VXS5s%%S]i_'LLX cs402?u0fa8V:J}\'l5@,@D.ZK:.Sk&ԑ;A8W(n%GaӚ]7Ҏ}O%JZoܽcf:Wle0'HMQ?{@#{SWЎ4]*: #v3Lnk;pX*iI%bI@at7ɵxcILpsyQy@+ R$'e[H2M3_5)? l"S'D:#ޙ9ʫ#>+1=R".tB`v&Z)LzF0Zp8 s?{Ķ)uIGx?е:Mj)꼓ܿ|rcgNK$m)A+eRQz+RMY4DΠUj8x Jr#);HVܜvyE*t}i|ZB*}DfzE 즰?pfFfbQ%2{N7 bU?O6vc؃q?/$ZI]?ĪP)|W7xPMޏEg~&"3(W>l64N`V"JKvCЯ(EsB~l5@Ks-8Ԓo9DJlW~r{-/rWs. ͢<;\؟Vlwr O~!M!Lzi `6:m2rRfzk{X4jlEq~Y(f]ZrCi⵷1A{$k|_\WBue&';f^G p>@ bphVK$ĩ-Tgzy#py-.p`>rkwo*I([xVL fcS$U7dloЉJBcz0kiy处g&f{. ʯ}fEv zM1D#GU+E░P%$oQh`?V"MiZb L֖"Lb>M3g92~hF|?=a,L9 ŉZ޾G<hj&:3܄J!7HDXk#1 bP1yHqnRR5x6*_iӻ+!ݢ1v\r}yZ%:5$j =Y%YГnSY|!%wM/a| (ǣlϺ%'B($k2׭w+@v&^+MLaN⭎*ۤAU+ո(J+O'itَW`[R|=*-ĕ_IrQvk:xTd<TCe)HH#[#~y0E ca!㇅BP{!`70yqO]mɫ°MDLNpzFH6/e5Xx[`Y3)HC!n"nfy_,=gr%ߗam|-?Du(ͳ6Dǀ-gݲCnˤ<ԯضbʹRjRpZ3əto/HiOȎ#s(WgXP2h!!Zovp|U:U#ś<JM|#7KH%H^Ͽ8ٚsT>Kgv[R;G-Ͷ#]N mC(f6>X(J矮**`}uS8H+󋶗1Ks2oOH_wƹ#1vAup{짏@V)$qA>& ョyHyc7wE(Z 5ӘѣaGWy.A:Jǒ%8@i8i01iq2l`,;p?=FP|yh%)1BCE5j a3ɜSB6hbP<`{@uGQA ,vYvWĩVo5m$$1ħuϵ>.B~+o[@#k`J:Au  XpjMM$Oi;AvnSSBHڑ<g˯= \U4f!yOB~}Tv#wp49b`]:^ ?!jew=F{~٦Mo@Kqf/TU2~{iwNW3cqTqlн~;Ngz"$sOow˟ld0M^<WFI 2A"uPq%m0M1>pғ9XGX/jZj_?x2AЦ!VS?vX2q@|6!pқf5psVf꯺ªM;iѕcuq[_9 rϧ'@6K3Z+N_8 Ṱ40@i)Amr@lA޻{)lV^ջ~S`}@/ЄWYb?mP%bCe0okMTH{)LR<&gLSJLcڰQ8TZ4jdǳ+Q_p$mE|?Tģ[`>g5UA jH7w$$Fn]C,IOϷ?ﲜsfAlٹxD}ڟ1Ǖ׼P[$:2V 9yU|{B4CW(ţ{Mmjye[t#<Z]0.O <ƥNCi,tg^Kh+,ߊi~wܓו5Lm(86UO[!(cg/k~ M.M)!#(H+cwYx`b2]Z$h7̜^vM@&7LʤKhR$9wC=7D6N^x};tNtZ*CXKio6gG+T%jͣ7qEpl5>*mgz.|`&UHwa\ NaLcY~'lUv=_c&Uglp-ぬz:;! Rei#=֤<]vZ~:9!zZh%Dc v mf̬./~)/<׍4Wpy_T6"{/6/~ g e+04@?ߙx4&Dujr.룵<`9>Gm;88\7O.Wtp/L)fLL1bN|qXdoϡ3ֲ/bPfE6Ź;( 9/0Z^'?5bT;֔w
D.W6=D@U$S TEQ!~w>_9\yw Q@σtm^,-BDaF#UJϴS5Th5'ߎ/6$Sf(nbc%OK5y4S`bIm[c};glMل+@&4My*s`  ;KFzkJY¼3-YʦEE7Wy&W-?:.\j6"ӝkٚ@9,tRKf#h_tcUgPI:\o:$NBo}*G9RHtzSO ^t 7*kPu)knrXYD$5Xvv*kK ZZLIltG R8WF4{]٤[>s;2|wݎm!e-&)FBVMI߷.fNP!I%1G-$U,轿uCܔG_:X߼sFsLuH.IDGy;['=K:w!|H)rB-Eي<5 0&Wh '81Ϧ<sRײ֟Q(ʣϫଋU0 /z~P&;!8}օ=l.?uVR_q׭K>Aľ{k`7G.啣hKS|Ó?*D@᰾pQN)lJiL/Μ%(zQA+|;TpdCy||֦ړFmմ!r$W3uZWVLB75fRU mdձ\~1pqk|i@SaUcy.1}ל^ϟ BBBnǱNIzM}/tʆoݔfI"_3dh"Iݴ\I5?GvWdDy"m5X0qp:]F|Qp#hݦK0N |X.L/'XȝT^s`/nqow6,I̒X[a k{eR(Lr5LU8TFp!݅0|.:J("RDf_01)֗&B60R3Jxkc83w㎓x^$d cJj;7[]L#Q;P*)԰Mff5j8b3ˍ4kjX l|qƾ>;yXH/K%F0j f.l^2$@ҟ8]a" >$^=;h%,QZzr'|~.hE#R1+I5gq[ܥK-ުJ;./\9p|vhi:m #]69.8k@1Ѥte0/.0fnݦe`0ÜNnUh"S|CӠ+Rubz2t|ay#`%_3a*Th^)ۦ}t2x jɀRvvZMnk*;9',zw~x"PLs9ln{Pc\(nڜwȏoL6xA`3[*2qBFlVr$.i5쫮|~QfJ!unLǨߨY@+ǻ]9&%Ao Sk=w)=5IۀGªwZx$GW8<ˀ| Ъ(FSֺݛ&a]+/X3~BA|,rsBX\ AЁ'|͆apw1 w\AL32RmyTw&>'5(R7EMa?GL#1J#`(\خa$$ʆ9vG!N~%,(C*vSGW[Κ_%nU#׮D+gTֶμw75aoVRã;%v%rYicYC|<0ݺ]} ;R N%lUQaՆ~/(Vy_u؆I`\ɀd%~NPw@,=Ľ{2:dD5:[஀h{ՁhP"Ҽn,E&)|?jj`M;s71BnXڟZ,ݜo=7bV6pj'FSm&Ls<3,7jw|aӑC)E UDo:6s )_ܵTKfyHu%4PQbq<K{5Kr-dS,c6:q^)>8$`eueuG=d3ݬb\MKJ0Poh.d\1\;@a>963 B.}X0t!m^,OM:zǋ[GW,+Љ^a+R1PХ[1+HO3]u1qgm *W!ߑء#$o0s(B}%WiK>o؉MQ"Px4O^5Z_[7YEj59~"DPTYQ]FxګF']+maZJc;Z_<fp4QlukÓNC+;WJ~SLyW*,w0s֐`97׫D$^CHEx Vu$[\CɾVϮ5 KHg]n>.UY6\<@ T_ǈk٩맠% +->: Q:Z* KF̶V0$)QuEJއǥ !B2w4,GQ#]SJj˙$ /9?`/X%Lh]1Zᷴ{{yA;fY|Չ#f!SJ@cD0.3tL.(+pg˝>୐>Լ?7})u7qe'^w->rTN+kde4Zd@s(u8)R?=bň4V.KZmOP= s8|q ;aff?ϩMr34:W&Z/sQ Z{|Gb O NvĘ`6Vԁ?W7g/)؅ZLRH&´ejɓF5Hp%6~(-[.±mz8RDm#S S۾tPB%,Ƞս0:\TtGrojgb:/.]/{1oɀp̫f9֗p(AJ^MdNZ{IG 8ONqz#E#R]H,YVOʘƔlKС'F۴,fRzYr.-gKjY_mKp5pKG&DHAG'OJ,a/R|uE᪘"9~ͽJB]g/śofT C۫;{-hsqZVh^T.vz4$j.P/*(9R,C˭@]+gX^ûDbRٮ@(~N TevVƫ ;aD-^!ʓ)"Ѫr!CbΥKdQGfRl+'ʝj C<ktp#𫲔" Mv4献pBAj<Wz ~9i^6[^Fk>'2J2#VlfjYgai&&9\@k~]$Qgn[h^ ?2rNPC9D!;a#C`eti'J_,98:(rQغj;2&x)W7:=m0I;5.R%2^z7U<_ю@6өrĐB9GHSȻ)$y}=ܠR]I',TXߐsǷRvx׻{2r!GxH&ˉKR6g4ٸg$0\v{>TP0*ф*ϦD9 NY=:if2b@ɰxvGz3cO'בI42 HbU֚5,`NۑE(2]DFDx9dJ JH57E:oP֧V۬zx_3Q1Hm}U+@s@襊3YJ5iZsP_\OOf';+̀Iє>i^Xd`GDO)KϦ/g,}^q{%<LPG|b[#C1#>#:_e[G,jv,ꑏjXK04gU/?8'CluZ3"Ng5DC8cݯYG@/1ZNj@߈>}`߰ȋ4o,V^f' tD\@|<+T+jĬѓ(F!9QT~oBn3?TP:@DI"Ey]͞ll@:'^&{Ν+:8q)<d[}T"F*M搳+٪UP󛖌%dڏufVRd;;G C%:$lM7]c{Kew!2!iJ 4&JO|,}>voM":PAϜz?J[-e>?X8x63>.`Aj(Al)3-MЃ/9Nq'4ԗK&ѿ-%S`Wy*A9l|h(JXhO cmfyO-MJW4.иXB)A&+H̩JDl:Xgq /.p<^W]k  Bgr#l)i(VgZ@bI%h~~:$@41lXB.3@둙ui4I酆{\30*t>GiEV`A0hV+b%x%~~^tcG2Wԧ cAG/?ELb7+XQ_kZ vnW $5]ZokC͹?*][C8{u9Nboх&'V4b9O`n;VOY{K#Wyn}T׸{ҊNh,F;ӛA@br+o{|"2ko!%*4鹚cL)Ԡ!-XF)k:!N(yv &nȸa;! YM %0[ɗI8R šyφ݅ѡMoM/v.N5yG`]qHrhW\o_(&)p}?tȤ!'Iٝ[ xY?/UCrEFIs%10^~,\y1,gáwCF 1eSgY:AY0}S]Y#)o-7GՀKָ8(Y [M=C^g8lq|;}myd vĶ201,OuP`VV= -]KcOCgMnD ;ڰElaRA<nKlgnwCn"NKksosۉR`Q_ڌІd*u Kc8f{C`X%ĎۄdFgבRY5TDћI!+<:B$3{S@PJ鈯!=JO[Xj>4~uMRt0Kd,v-\ת9.hK:F;yDvdy#/|#+3%a3$pxT-BkQFS~l#QMyW}b>mjlW5yngQ+ \C&=kjU.K? vK-R9"(cY;8:a,'WAiD֕!2|X&%?#΁^N B}5f)YRSs7ʨ:/p|Wu8shpB)p+HC֒vTj<**ƂP5{$1KXqHAhNow^|3|$5d/ij$8".B"Z:&5OSY&|uO\0q4]} c8UnhxI`䏜Ro#slƒVxsY?umg=T ?uæ)"vjl[/Hݘj}}d#*R(//%yN~ /l"}R2HX%dYrj̛-$P\Qٻf gkOQ^LzUפm*BɱЛVV.6tS}6aAa-}*/}ԎxKDB5j7@+Q2C!;ej},v$S5^P rvU?&};bXhh\Dn$eQKD?a|C>=h<8˗[^]44O,M4n] )-HC,w'ҝG.=ea"MG]C]8Znc㿼f!NkNI>>eNDђȣ|[~ka^=YOĚ!gBΐQ9P|N;:E>27ssy[#Kz[NmoDdKpද\Mma>Bzm8`t~]<nbo˴"Z}<`0['}\ ۶pA]5|t_^/^dP$P|ќ@+:,5:gAx\GOM)_>VADC4	 {Dndv&hj|Ě>Nj0ݫv2`8+٢x#i1CNd=k,4[so`6Y-@Z-zHϺ Noj]계9R=|uoD]P'v,1)Kyk >R뙛q탑ZGه>]T~34[{Ww-%nVjuJ@іFilmXR\=t RM>RD!r@9W׼g~Q*1x"5 g!YZu$b5<+}8QL _j$2jfj%EmBCKAyM<qw?OgoM-@!򡺌64HY}0FFb@8NE$d&Mu- E)ĄSvcNgkdX@GIS,aѽj~u]yȑznfS \%{=ᬃBBz޻@Q>3j!;͗ RIP3L.2?E0'GL{)I1H2Jͳ XMj"4 H \>r(~Ɨ1Lol#|T}3:L@Mb±bl,ڞ}VfAfʡ$-p^nP1EXh 85@uQ]Nv BO*CNhcf&*zP:+ۺYE7$D;_̚E&8ڟ^Jxt1E6TY6MGUmU{5|$P9\niG $I:S9Yh_-r{J Č%(`H!Wp"4+@rÿl%VΕ%ĮVsDĸ;56#s͐3h+>y)ܭ\M guԕ5Zo޹b|4{2Q4燒xN5u]~P/"ڃT-\"o!lZ=ˇNkM70ebd4ߐo1 -CWAfñLKqc-Qv;α`FOcm1$pnXFp<"7V:'q>W懺gZ-mƖ3Qws_R}\Rw0յFX铯fG$Tv=H҂O۝ԃҨC!|dtN0֖--p/~cBV=4:R~CEБ7!Rˍ-k@4@$ !&"!+./.Ӈmk 2P>7n_i1[73=1np~DL^ Ӹ8iI;Ȉ!XɓM) {E)YKʄ2u1hgH,w))Ս&OШ9Ͻ=D]޷>mR 5Uw=ϳ9u}<̓֌e3-7wiL 4'5B4p!C0JFܩz;t6%uuO?H>lFyp/:wx_ $wrF*bBk&ڛQUtv[BƭV~іnq.Ę,fyѾwnw.+`W.pET&=!<yg1j֕`gMPCHqP`W`#ף*aO˶<n 6"\%\k\o4쐭23Tj7Ha~MRJ,| KhSS=ؙ61@0v-5yaHS#"a켊U,KU%3x@8$!}dfed%,ǖ-Zbip.׭,+PBHɽ4 7g$Ʒ'GwDU\ƧH!pL3U~y ^gC1 DE&{ctހ^;vz y d굶WUNa?LluQ%up@݈z֩ T]<S%rao%c^3JN扃JGw+0a pJ,=YٚiVJ`5)o< ΰSVT>S]W>>0``ew*{}kdӊ-=FI; #.aK+IցJ6ϧ<.wBߣ*D$"|w_N6DNZNdy {V;SdRzx䵩t +~[n8$xOh<zԖ.\~&ĩ+Rg<jvs Lv[u4b@ȭqevRp&[v"-?7LUk46Kms1+QjBr.|5-cHAfVmtU%E?Lʄ֊m˖K(U RݝHoVA5&R"IsR3<,p́qλ6Ck(hzoTִ\ ?EhO!,Q\j_T.Hﶻp9Svհmʁܙ{P, !.B2Z?P\/b//kI/?^y$>txmk-?rZtьlU=exb[j5&z~vBU%dcV"Um;@nu[wS䱗`͢HR^XvRO ⑿ ZW8dM6_w"QpϠ  n2w-ИjO$w1% UYGgI%ýx*:T!#V3vcU3F!^TvJKnoVYCb5{_uny6wcaPwJ}VP7@S֠f]շġqv#q%DQR*=fs \uЏoܥaz;V^}5mgF23N2>QplMDU%>loH:Z%ɿAn!{, W'\DΝV:s]_J_Ӿ鲢QT~7YFXd?:ĶhJp]uK S?Cc#X`LQBHtBS }Hjm K{|git\_X@ F树s"~lB5P ZbrkyK7hTFa7x!M7. mևXtUu]3F&; 6#HE'B龉JB̽'Yl^,ys0a)~V \Q3z 徟nleX8?ʠzwIq^vpB{ļ}.B|U0=XM:0MRvoGh<KhV*&Tp}O>47uJ\-ZHݶ,(O2캫}Yk|Bmn-t5&S=N~Ρa<Qf WCC;=0p+ZY-"T&?5qX5G,.Ѻ$BO\qPHND\@j$" S&g;.iާVD5)YSq*%(Xcm)ǚw@$P4c'N<rehmboc1e1[]ҿ#I߽] 6ǾS=p#+.T[M]%؄i;8S&)\pk{Ё̘X3 +SZ <-Jkx`Y ͑OU礭g7%i#,j~Z9a',( lC,&D͙{8^!#W&jȶ̽ wEOZQ34Q;W_arU9 pP#ÅkGȝĦ]sckMWU)afhQ҃=i{[O*H43U[v!!<wfmx˗]i!jV8(Tnҳ1}N2oYm&E/O6$t2DOpκtit,D]rEF^obEJq_HCRQI*=r.b`\biMcF򦍤_2Y60#mں,ЏI sJ:+Gpg,dn`,B`/b# #p'>|H?+ƶ@pzlQ8vUKNG:ϧcL`j٪ C.tKdvM#o[>~HqԙAmsFB[C +?Ouxu1D9?!IS`> z͝c|(5sKyE%bx׏MW秥D=xW& tN^)o^)%LSCTtb"K>Bmd):"x>fm'}棁O;!)"O.<$m'a!ծ±rK^LB[Qȇￏʸ^_.|d'VpsBC 2(NəZq;?;ݩ?ץ]QqEƸkL.ݿm'캗;BJ$Kw!=W5,kC j7~jBFXox_Cr`3= Kݫ1=(z+˕.fp}<7;TF~blW'K:_0kni\hJ/mPl7]ɉ;f%**3ulO%5)@C3w`]I5QeOHP]4Vth(&j{ /<_\sbWc~6ȵ0#H$1/NUG"ߺ]࠯vPȑM͈x(PΈh2=߀w袹ԯ+x3a2& ehl*$ow͖l!ʗA::ͽuUKl(<ɏǨ;m96#-/{ѿ6$E=Ǌ@_1A$-7~͑ǎ*5pa<AzArXWsCWKuA\ec3I&p}fdūm?P<ԗ釗h3wy2"4O9iv]LjK^VcO裴Rق݁flm_q@Qq\ъɚR$BZ]wa߳,1f>8e}!pL[J?YKcҖr]=(xfVJ3pSD0q\c.wUϭ}{v-KQJ=̣עͣ^b0L'(|w>l}=fĕ*6>~劜;쯭nѱA/u>AKs 7x[8ls*/2rs[^9Zfğ>׫zHǠ--NҸ--pm91mfKh ?qeN<ԠGb^-qDTL,Z's{nh^4턯m_Wg_ӦDKn'uB{領CI%Zd~R;既c.M'uaɟBWZf9qY0Cv-ƇS]=:1]Hbӝ+"tyǴ]YLn <!eɆ!wS4X| :{]9>.WR GpտLb*DQWȗfu82?a	q&@%mH`6Bku2v[Q(XӾ9;!6Ji&U#_$s#\Gk<L475֨@:ttVKB{dАJf$W ϛ3"F/2`tZ-qMVFڎX\嵟#]0,ޱ["w0" E4áׯe"FfUH0Micvtb/"ﴤ%,iBߑ`~z_1\Jz㩡︿h8gh|>fbH5O;C|Q}2Τѧi418Hm'n!^c3i9pjg(X]KoJN<]]Y+d*\+Z#i~;LHʱS,=ox`1%M;>NĽ=0'"Iy$,)c֎@%(I4*<gc󏁍Jq>E&j!HMMEVg:7ol:M(tmY/q1ax\ FDuՓ/ & m_d⺊WFu!$yq6I8"3X:=M n{tu*!MyզW>^+<LDHKA!@r _*r3RfӺqر7qjdcsq!2R6^79ax^~e"CvەY4|1=Om~@ F*v7XI٬6f%#7ᴈrޑ|qg0J(D7ӍvakoT~giU4<}A9btcHg)F}⥵!4>Zwa9'D{=pawusE*9jnp;2d+)1pu>|s\M4VT൓;0Q}ypk[́ `ʛD2S`4aC4*=0g1\♮8sJǡʧq!]]|}7w#]>QlWM*a\ʘ1ˇs>d !ζy&W37a'Ipn~DޛCv_1d4߃',?{HHX߃əۂIЮ2"J0&{Shn.#[o:[@j%Lʁvſј: ;Q2̱#2ŸACIއ˒a,*6U<q㌰*yPF"F_\z`nwX΢dd,8溵vJdp,W"RbVOq[L)9@򩰴9ၳnP{:w(+g͚k -4+|>v[TP=s<w;ɑ 1˱Mxiլr)y`)R^dcOq|lXEQ˜.Eqgf> a}yDJGJJɾbsJ!ڜN7QVѫdm<dSY)777[ɹBkԥI h\DP}hqœ|aQzE}SgnxPk͂Ku-Χ[n.Ż"=xeK\leԛd >OI?b0Yi{gBc̜25B ^'řsvA#|{ ::ޞL&$`JB},$ 4CK߰=GzxP0%l2" +X*4?ia bP]A*yjB{Z3nQ-lE~=ʵaY2j@8֚:(mЃ:9v/H/)|a:djKii?rL>-q<5񤤪;ۈbgz]Og"nXvVll/}Ny Wߢ@D,1znqzȺ݀[\N5`^䬪zlԈ䫤؅pW᏾reīfOl-wbp|HNҲ}0˒KfQ+)KqO62X"_ c|0a9:TÐPBNIF0Jh/t6-Zbxox'jAQƝLS"jsi1wYAbam~,.;5<IC6uz,$/6<g)o|~&BGfZ1na/|e6VV*T El,oZ+1՗ 6-M2|1jږ(ʄF!dP#2i]_ny cv0:m3s5dF薸ZI*jjb*CO1YrF'F=ۡb/_aN=jkSQZnN/4A$OD0io'"'^e(}Q㇁DP[Vou/ *!htz0G~{$K,,@`r:ʨ3N[Blq&1{Y0uN3AA[f,1KL(a3TB7dm`d1Cn{"Qfxի=*̾J$ 'f/|^Dr>-BJ"_%W)hoQ{F|J?w`٤ũ򊏕7'>ywS~nVK\%МXd?ptnwF4ʒX,'SԒnYMތ@;2d|:"^|yc:P؈ [:hRY߅-9f`uߣV9i=ݯ0!6й*:%r|2U-l'+f%eԱ.ĵtjl̷Guq A\B2RdҎ "ϱ:-u5"h_5p(DiIJ+$N? _%0tf03)]'w^]KGtEq<)N<kYŗO|u䓍Qd$zOz@zj{6-kP,/}xN,B3c517)"-}HW)$4C2<GlL55>L a}"=g4bZWKygͷ*Mf5϶oNը-S4Aq|r#z\@R[CIV``2XՖ)έB~KDq41:`j*Zz'Ti)^4id@$OD7GN{*${52?_l8܈oVt~ezs5ԁ<:=0j;$/mC޲'˫ka:2>K)l<ʯȰ; J~WS;ӢcUpiwYfWDU4b8BĹyzv+;#4E0ftf쒦xf6=J&U[&C|RdESíW3f~p&\`Ҿvyq.*^1ʅNfQXv{/8̹׮ "I[Rʻ!E;#~,d)r2٨DPwOOy3PxZnϟp)7<;}g4?W"ADs꼚Ϯؐy_6#F0zg(r͌«<>1 Rð_ >5pSY_&g[j8ZD/]WgݑR+5_Zcӷ;:mv= _qX8uMEt";1<?HŰ\дBwqgrQ6.xp;a*&ϙ-Kږ/)o{Sy`:R8P1Vfq(iyr@WJEYs7A@_)l?-ہ*uC06ٳrnGkGȝIsMr]YW`w##%e mam|TUk Bקd& vU[`#%5ZКh+g_*>64k5;t 6Otpv m7Kz6HldNY0et&7_l|BҶ8\)=vIHY.e\T@ӊ5MPd7XT7>uc&-痻1#ǅdpx>+.:q<.w;sk8#]aRPP=J鵯 ^ҽgTa6C)EZS)]&g=4qpu̔5:G\%8$S~<`:F5קNڕQb1DM9/ӊ|1xu1"yy53tZWqr/GQۧL"OIyЃeeN:'Nơj{^¹7pBԻLqMW6O'!NESq7d>\@oH`]zDH<*I&Y,SiXctSmvtS!$xvEUiCF~?_{ HbLw%2\/G$4@5u##f^uxpͻml(j b]ۜ',BLxdL=nxpC"L?M,c;qp![FԑdAXU'xg~R$quؾސG3i7`5RϲA˱kJ%)g&ι7ld Y`O=6dE+&?6/S'3Mޟ^V0_-A->@W#Yga-&SQ{1=uRZQY;0`YvADVWigؔRrWG6E;_h cFXϪ@A?B!385jt3zV7H`uC1_ZSw/=~5R-q1]Lh+8b/;∇26呯Sω0pzJ+o~w-o{,_oC'ZITYyAͰhbgNV-q|n+{QQ?Lu&f:uvhT>Ҡl~Y2#h+f%*2L+.:w+RO{2l6qŪxT(-hNKJqDH~[׍Hģ-{A^#]}'>,{h[@p*l<jE3,/i%|[RC@(|P8ޚxG2$#uR~䕩bI_,I~G{:tJ0rciK(^-PYAUؒ-Ez_J[ ="V]|< &"k_>[$*#&X'0}$āбu 3pєmG)ooΊqgd10rې]ig%]_Zٱ\{n)LUC)Hw#GS;ٯEƶW;i9#"4ǰЩ˩#s:[%Ѿ3_\lYzV~K:STE|15)AZAXcnܒ_:+zGk,5G8Kyq=KNV "L\ҫYCOgS:GoaX`禼2:r.U0̼A3mDz.M@MU:߮p5,9b#`2hlDS+<=`v_<<Xҙ|i#RPd^_$as&C NnSMg4#`wcsQd=PG)OvCArrW|_WKPN$¿WFt.-VMAvl4O)F2}\!wd}T]_R5S&ďLqDTej,NpЍ!˛/GN"[hE4@JJ!Q؅U*AVРM1[M&2l;yCc^Y=[Py'oR#ۚ:.35~F+&MN69?vOtҲHGu D0[/.D4hWDY?cmJia})o#[w7A[vT@P[eֽA&ECvj&uHBD%؋Q=EO!+QWh|(uuWʇy*9;<AjFUqhYK{gGKo/p=*)^lhtِ̛WH\T~]YL[\KeXiPog*3`׷9*o@(~Uu(`mbL"q(_J7l{|m_o2V?b\@jNީZd_uP^su3B>~﹨pF*VIԦSlQY/5Bb1y}2б$dCI?ZA;bz6XI!s?\B|K1)`EErNPs;R1`*'W48Qx'>eI*Y)"c:قQl!7[ */'+xaq3Qed8ǟX1#U`P-ý :p'52ɻ *WNP\KW>e_WH/_8ב)On.2Z.nC.v:%]NиBR[ofk<-J`ZMIP6N]5/@{n&T1T̴i -4,~oi#n3/iϹ, ܾYCcsNKكS 0O@LUya,7ix %w\pK0ڦ RSd` 8N[~Y׸6OL9Z*Kߌ*)QE0˗nz}P{J缋3XX-Pmf<k/-1U7|tQ#nlq34(F!ٙ)3=ϐJ*M$Ɋs9T?0 F^cɖ[ #?δ0!l9QKӇ<i&M*Hԙ AptJTڗd'0X9ǱMAvL=-YHy>(W%EY؎Ȍ~>d{G^dun~(HϭI U=b^֣ԢuH3F [d8<jՑQt:X)Tɥ_Ȏrt˲.ꩯxgVQ`sHԠ4viQ}CܞݴSE$#h1".."T.DEB2_!`l2kFqnW2j`w1tbzU&Q{TzL֟*EXt:]T<ezlEIRy`/w%y\C ,7ո.*{ߪ"z؄ʗezϓo32gΑ' $|U󟦽d׼:0P҈U,4[ɓ?9{h$кΥzH,+k`9ux㠖ӛb=x-#yC0˧TPB@Kvq*qnͻ A*qFDmuFn)1Cg۝XXhURka8A92t[6);L"!'d`QbZpChI1䴃0cy`fY?RҤ#}7N}Z-}z&=@`j'[/ mm9Lc -o<% -j᬴1HF>Eh3[0VM706H>>շ#fGXjhlʎ ȳӞ )%+5y ry(g{y~:5Ƀd|#B_\{uBMIKBPJmѹUga ^hr`l^=A~ dsz޻9Tk0W?ĂJ>82^xjF?T6dNXF=:ƃy{A3D?ıl :n3[QfsҐ%B1ǉh.Uy̑@GQO7aΎ0^eANmYq`7¸^!EZ57В?Lr%0JVB9j˗!Sy߄0f&,VDĬP=Y&(t钪ch04] ٢Q&UzS(c#RGr|eA\~#0/ڃ=[5bnt'ni$$`Q`tL,P=faҏ~Č1~|s|I.ӯ]&ixFcj߇AR CH)8 P.7ڰ+:: *<}4 58'rEyt?Xq(g 8qM_yЇ G OyP070MƣV,J)Zm6<Z"=vGR7Rc_o/yȐ_B H2El5UuI3ucnHgE){KTjvO`é5?){1D\{%ۑ"Tx2YthqmN@io@iuRZOV@CEj%Bn&m,7pCޛTA[kJÓ_\˒obp=+2\fciSp(DRwolY+t9 !`8aV;) ݴ}KN`r1ѐBs,e]jZ;+V|C)pB;N([\F)HLȑ, #ki6LM6ҿZEfliԶ j$J2X4r1#sR$0ݠ+@ButUd耕b' Ѫ8iR0XpܷKZ;(eүAPxg7IKq?oXrqN%ޜZ}Od$ou8NJ ]ΨZ;Ft? oaWO?Oٹlޟ>0c?H/8kQDS<JFBHE@w:\B"Nyq~«E]?UY{&ِG-I T[!L?B$.PCYW?gSL~JM6i2ywkTx)q6>"HNZW;ЗMsg|@< Oݺ#<@J(%0+L1o63Sņl^!e85p^(Èj"aSW˿%;' rQ%@:1P`?#4c#;#YJ@3ѽ$Ǎ!90ƽF3G)#|O5h+_sP ~q%)dkXJ=K'{Ԃ*HGt0Yr }.rbA(4+CILA0|9^$z$z? AزaA𲌛?RL<Z%Sنzq>7{!< 1E7YD]"UJŖI@i>["P+=tCHcC8?=f8M,sefTkL"@|tB-΁Pl1rovL~9\!G~'ٓ7j}{]Ҵ}S3}Pwz򜵚.#5bI#Y.-ա*mFvOθ.X!Hh~fP7ڒL(vy.QIUBUACg~ned`F<˲(cCbb%iD] 2nɾ=9aGT.b!P(Jtd6ڢ|a[.3ruV}~dB`r\+Bx\4i^͈G]dZH- J @^\QOi~iYp(/ }07R#⯆I.5k(xJ#G;CJax,uk'wA۪N2_z}曮x.k+@ٺ /̓0Haaa+ ȟg>94qvP #zYU[kOK-̖'.bhpA2"e7;^m!!UIn.bnhjw]&Č81Ṗbn`l,& @P8TLy~tvwi%/ Y 'Q[C{m76b"b 7I57?JzgXL/wCօ?L/ 2myGG!+1}eLIrcJ̢9\Px{Kq^OxOgjċ%o3=\^rrۮq>~D.zYX"Jb'L23 =C6~"8 2H]qIIoʦqo'LdMj_] ҫ>AEyҌg<UӨ؞P@'{>|-tos%#n]=%D;ɑCnKt+fP,<u=q lVԝy/qzf5C [<SEO$l[SL.`I,L>odwhqx",»g7cCe=+R_p$ƟPB~YtZI. O5xe-5iSم~PiuL)J\|H;{ܵ"dM^<VQ'ՋRVLi@RvZAzhևi:klowJ;2sKqA@CeYo+TėOE"MFX_s28![CONQ-V:Rk{2gwĭlKURcr]{הbo~>m>$n'ϋOQz֦V2 ǌsz` XZe 4/^x7a1>j:G^ׄxٲRbW[S5uz`t>8dVg羫Zq1`=k8&}btlY {D9kyszLgY.yPmąTWS 'CQ|&?}F&51^L?5,f,Pc',|Ǽ*V^:3Rnyu<u>@c̛~㕹F{g{;\`^nɶ.ۓ?24NLK%k|,S>42l=CN <Ēg6-l!wعZaU:*,!ږaG3l<9h::3-ٸ-EeQoKaC)Qi_Fc~%g~QSܛ>hRmyF<cpA:I"%96+*Iâ[W].svlPN_c'kEih͖8nn,5V~Ih1<n<mxP)]/&8ݯ,m^P.)~pË7b^ߗߵS2@;={?g\D'[4j'nOMP3TVZ;\#hAnYBhL )=LcdzTV!F+Ei oVZ+ƣ)ѥX{RŅ*~*W;S pxw%85"DyR+,H."~a,Z+ӔvV̭5k0_ϓT%zW[$%vKփǣV@Awc%.##u&'U>DN)ڍD!|ջa=_U7D59dmMWÔt]|5ggL.Lrcѿ]Drbls6C(J4'{fh}m1g̸;:#oNӥO֘l/UE8[s,^2b3CK(/.9*DNnwO(.?1ʷ9y(Ygo=%Vھ.&=@I9 ЦZG:BKyܧl p#BrcQ7­١$my!|M9I_{W1?HBH] G߂L7v6kYf#)bZݪgs3I7?:Q6TAgK{#Vu.Uoȶ(@<+t.JAykl}}Ix{!+Z4o`\;9*yO-ǴЋc4C`VU>=X4x_W}A0jn;\89{EJRpq]/$bZA `S1bGԉT&s0omjhӥfjoPFe>BHyoVL6R@tƥ9C_%bۆm)Q.π\Z, Th@=H$S7]ò[1}<!vp@Ra9pWv)[Bػ۶"z rw#OYOC'=6;<Z/Qu9qU0`3}l]Fˏ6XV\{ޠ+Ð_3eA;42%  ux'y 'F85uY{㚓my稬 ƾnsy/8- *[Wߞ~5cG5ZzCa"9v*wL8iďPZ>@~Nt{%0e9aNU}4Oy(En\SSWbtku!ndmWB}5K8Գ9.3ʦ7ɑW.dpDWՀJwwk%f1M{ؖGIfbw܀Oʅ1#)2O0aģMh*˭Oh/h46}ǃ,\Ȳ}3Wז13r3ș(Ѱ0}"pKSΠA|]tl]d<)^-Zey)XZp)s@<dBHdh2-S&h2ʁ!YT<}@@W;tTvMGEB~!ŝhWKZĪPULN1T*];Ĕjݱ@3hwSPMy~Z2jS;OXVAe bVxP4}%>P9ʽ(w0,GhN䡆Neah)ݜ|ޫh@r`g]X"[wod@X8ór.mjKCkIg[Hed] Ezab=ƥoղa̬pM)B.McY<0F-КC-kXOR1C8a|2Bn?M|kR\U}9@ef|֏deS,%=TG/X'`D]=m,th Í`{I*x |`쵹u7J:L!gVp̛sv8#1{2HU`!vQ<==ɕ5d-?};Mi?z݄P,U)V?0;r]#m6r=7l%'pw z7K]5Iq>F8'Rr@&)$GmyT(YCÛ  j3,hyS+ G1Ĉk[c1 o~l0#*J@eV`j2Tƛ7qߚ"I!l\l9e{}6d Hz&?v1CUm!{u'tpį'1;+<9̴e Tl.´㱫|oBKfr{;pթMJT^>hk9G_I4CN8Dk rLϐxKmSi9<9GIwolS'"ڡ؅ q;~'G''`M^&[s+n1 jPq6%Xf3SSPFYay?alч涅l#:D}(?T@m}h=]uЕ0|7t) _XtT?$ѯk|_9>x}c)޽)RYHlʖ!ˌ^ w'=A7F4:w5ڿ&Nȼs!>~Y̶q)!@0ov e-«X}h|Ψe3C7=g^"ܽ>rKyZ\֓ /X`f|0Ae5쥉(X1˪ή*CuaW-A_cw>,_N /8 C7rx$.DC_Q"iSz0WRCːs0^P8M8aRnr';=d|W-iحc:{Zg"+P]vp|r+eQn뇼AmE;=īhRa@;9}7|rKA0%Ȏ-G|u|f4KPld"`Iv0- xٕ(}& 77=ڇekJYlZ3ApAbN_ajJ CٚBуAoAC (+9*%ny"tgdQf3NNhb /ej0ل[' JXzfmfksirYxf/xF'1K|0(nAv^a_qLgEhӧ@CkڜzCcXTy #ۦl갎CQkQ]4<>b}3A|=(izB:qJ+WZ|^iq>C::?.m5 GТy:̷*q*ai=#2*bf<)kմG8 m.;;4ٟoђÌz%PdwDJTpQzt R|`"i|y:#Sx&R]tO9bWP'x]YПp?i-x&_b.*RtN̠E5 $3%%]nRx!(i)j=&@xT+UZ!4"<UԴln38vF/HpHM?@ʈm@)s:+FcBresP1xr`E)?3gI!RfjqҟsbB<1&z-Ќo;XziON\*M1887sva(det*λ:f$3PۆoaT2Ĥ4g2z=$ :-=h[R\ʍg)%'>tI:V]D+ͪqy&THưW*Ґf4LKE\Ju_*tێClgKq.5k>jMrcSܨVKYM(.d7hȒ'Ю>ga0>VJ$g گAS⿅(c"U5^7e(-ҷЇv'$'/@R3o^ 1)>SjE #Cy|h" ǺџX2r?V43H+QvmKԍļS!J.UFnNҊDEoI( zcTAQgsP/W=[!2sed!Xz~5BJ?4l66>rm2ځ{uB)Kb8>(dה<?y ZQ2XYQ|A gB9uS UeT~0Wk.s]M8eMZ51B2MEY Z(^*43,]Xs^j CP@жE~`U;pl&aI[-Fy*~!4U a-@u~W_m< ļ8XrA=`U0q'SbRiX.ۅI%['b`<,u%N/WJX¢bFηP[X RFL%Eat1ְ<r KtSt&Ȣt{%[$r{NdB #9D )OGYU4c W&I}z_3e%Vd5'@k2^ӿ>BhF%YzM}Eڒz2ruI_ݛ +~>j̎9#y7v[Kuq%Zf1ޞaګ|"l i#FLٚ5ݕe9a7)Qm"`($'}<20f0tP%nnbK|2rdҞ@2+KC,:[k<|+%#n,n63e1H_4ںAey!5}7.AqY5& jT~# chO$2XABZB\_&zTYDf~]EUJ`r'óNj7Sew/bE(P"E)-<5]]6Jhi|Dv:T*bƿю^UJ-5uct?@Ҍw6_@Tm@*)+IC˽IB],xAkzj:f#H+2ޞAF.1gOD?pLGLzғbUt84.~?hq}ON/͙9EhFUQ<F_ZLN&AxRH,{G~'X0 I i`oC_ |#Q1( ~Bg,5KB]PwiU1(^#DNi&mqayS.ea1i@D(#&Ѭ;|OH]:295e;q 5'QMot<O$b+o$Y[27-.I?"Zr+خR*y?t>yamJ<%pXae<'bEEg#u<+6L׮#3].,օ-Q$_E}@Y1}%qH;+\H)^syUw{B;rz<NEXb\FIrqkd\u?,؟YLqP娪""xJ,hY7YEoiZDFSJL7lyۂ "{zԈ5v 1{q%VŇ́IZjz$))U1F>i$*#{ؙ20 Rْ<Lޢ9F45?aPk>h>ɷM*+_f>qؘ=X yQ`{xmZ33ZwބU!0wN\+ZR>´k?Kw={eBZzp\q3QeDW%Ce޺͆rmh@iOs(*!̇}4]NHYd^;Qn"/`ËGƵ|,8J|ݏ45 ~>61MD2lNp匠>+n?e7Ӓr˪0%UtNC^SxdnMU$/:"F%5'KݸROSi jAmBrK^ϑ<5ap#`E+8АVY?^G#+hQ?3Vx71١˟a;KC,E<H_uhJ%\⤡qď(c YSBJ:mb? *a<HV}. -ÌK1v%4k0uP:$Bs+x-moBN">$3,|S&#TO10mD{ʤ-d_ه.L<S:L%F_Ԓ/N.˳+O3k@BkQ ]":0gH-*O*llW%3og:03lZ7o~qb{{DREgSo[M;TȉҸGW%2i2="G]y:#Jt֡o/OaYOCq;Ƌ5f ųOD?R_ɚ7lF$W&I*drU}m׻c=ۍ?rrP:T"SO Mҏho-(%isjQC=$k򠇖<e7<~X&n/o[V$ 29|WUd4`*b(m=9Gh5PGXk1dD?w7Gi m,X2Qs/Wa;$JM:=Tt@$Jq(fR?ru/ ɟLo_KEة.8T7 Ǧ6샼(^uQ4ȥw:_mvMG[o߅ete7'q'dajCQ}@3;&ܛЀ+_kdí(i{Up%]ׂ"D㷲o<eͥϗ<ᏊsD'~U#v˯<^o;}MX΁mA0~N>.w`٭87~]6UWlڣ?ӉU%?sE4l8UkEVAg+ 6 ~wU csezvssHyG+y˗ ^_i'IL;r瑷gT޽k¤0/KsZD2:*2|m3-j4FPQCv%c5;_Y,+(ƷHT+٦؈vpG546\yyySߗf9sMC ydw%shIUNbd;>t~ԫѧr+=>nlD(:Jt~gƝ'<\EfF85/O,\LuDIY­~8Ӯi#ǬtIJ.}{n׽o{+Bt]`I/(_dmo\>kQfOAj UksЏEQs&GRZ lo2xds3yZuO D@(Ap:ԡMPmpU%1 ,A& fVOʌ :,<<۸Bi:^cR3çH.aݨ_<(Eo9V'Uj-_01D*5a/diA&ʊ!(|skPxTiڣc疵C]+T7f7*|ьC,k:ʆ`PYLT<$T)Oֹ)\f/qE]DV4]uB\M ʆ-SyVߡ@UM(>T=^ODe]H S^ esQ;M1[T)*j7=+)R{Hs*)Nd{vl)IJ%r&v'u: F9V-skrkȑ_5%>}|X#6Vc!$BqV+ECB+_WyU`S'~tp#>lׯ5,ǫ3yuT>XezQ` 尝u;OѴ2>@LYȮ{:RÂCEQ*`VLS9O}Q/P-{2L_)ӫ?R\H:W;+^8q[Wbs?/>T7^7R%!J8(pg%ʃOjXoZNrCF?3nU^lxzJNiD2"eeA2D1^=E:hHii1"b9 `=qz?{V_~.j'ۇTxr{K?)oiT-0ki'+3[)W_ym>[j8.^*C3J(Di(^6?Y_\(kCO56O[4J-y&4TDִJ=мdx~@r?Vn6ƓsU<N 6BtfHD5Y,~*:@ثJ;woM@,=#YfL<axskmDިd$h5;N^e,pR*Bo:%UyY'ihAcJ}ݞoN䚳){$<& LH· Xi?yeH+?ɤ: 7`2=rxT;vnea\MS,kDШcN@G`@st^>]Jμ0BtC@tOsp?V^{vzLLB>J/"(ߺ8Rb}ڬz_bBD`\ TG;f1͹KmRp)<ebsJ,rӝ;LǑbBUNtyP$>M%D2Q }c#$]eD/F)#xvn,٫TnHͱ-PM5L<;O[%+H<JEcƙvg;sOCu5abQ$?ʗ!8yxy2ZOS]<Z +ȤCS-q#]_n5ǊtnWHF/\9clM_p1~ۮwPM) kN-`h 08/9p߼f'|δS1Z4ҭQq<bQ5" ]7oZ[oR5ب{UH`S2|b.PTGבB*6Amm^26OB2UbPdY1WYh"У7B)Y=E$cM4oe'H8\K_9y6`R#fQ_yҴUg$K 1ݼaL  0"BmWHgnϺ485*mhX5M!fE$Rbm~~]#x>d?c'12YtRT͝7lqicX%[y> 3en҄8XBż@z8Y&N|i4.hY/){w߾..Xf̗i|uVP%ESa* ,=qyv̓>Öe6G?9tۤ0:K+/z:wpn56(QU m]ŀ_^%.s/2R#R~-Խ=bA;0:{Xz:*F}x-y4]كFJnt2Nl{5RNgr8i/@+t0囂~cwgŗOzOt;gt,L @#SI?Eē;^?kQҁ75s.3zWl$<[[| _n9禲Oy^#d5V'hu\J뱛365RmjH*Re<)+rx+]Xd؃E98cq~ v+n"x;F헁xmgC-N=V_՝Ʉ FJ_<wCF_t,=49תDb`=!AA}<m?"N1;^6mT\܍x&౜=ՔZN1g;٤ErE$HXypAbE4VL9f5 \L D9Х#gVVznܛV+:V?\_HqvLＹILM;Ow׻yz7'IKƋ";<S10FX\ aϏ|h_RCӾ1ZXybFT_2q?f#v=gis`4<VվL:ZG$E]]-51x㲐ɷ;?pD8%&a>3IQ-bAg'~%#mbӀ~UדuiIƫ~ރwR[a]WI'Ԉw#v!K\LC~:H[kMr'4ta8iաCg<nc9HSE4/Ěw%X A}tZQvKI#Y|55bZڅ/."4>˖sL*nkj,Z`*J8s6L)ix:\OT//"opD<J;XKN қ;qvf*8y6fX¡2qoCx&g6j4?iA@Qh1#uCF_V'(]"?O6Vsf6XTo(-a(*g`QB(ԳB~XJcϢIc8uE&"e{J=R%ϫ:=iGДZ<k]xk4nm*TX3ryW۫kHoI<@)GZ1󺧿 `Ԥ:==/b'`Tˏoߌ2;$%SȘ ;e5BbCf\{-C9zK옥/Qrݾ8(Ha"y{൤ѥC_#W>ä[FV Bv7*%ZR⋍gP>TTyݿݭdFQtDwuԺ9m+Ep9/eeJdU~\p{.`hӇtM3cszyk?|MMF˵k,$V!%/q/a qCB]RX\#gVɉ0XoN酽KoU# yC >Ґ78?LDxJ{]adg.tKpRpO#W+J/MIN'h:;|pYbr?6VuE&s_;o9Nr2@6IviwG%X!OSH}`t/,y_a-roZ"zPPz&Fy2j(>-`NtJ@̒<<W~4ci)'b`VL.9gw]vxT566&>U_D"U?b96J\Ռ ~Zȃg\󑸡{ٶbO'X[X{_}E{zU@$kmV?x5&Pek2+XIvRM|juݚo,c/^$)$(zGaP Ws'@y]WNjcm4txT+pP N:4N#=<T_^B=dl+<Bi2?K8o~XKp}FP0M<8.z/RyNzV:pOJvcH]5mȑG̬TZmy bts]7TjqYeUR;@s A){e,i9R}vp-EbXv"v)^ONBe5#]K9D_`qw@5tlIs!]legoZ|g*K#tX`X-tLTxrݪ\0e'NJʙ04Ȣ>Ѭ#-Z8:KKq0ƫ s;%EnH`7`-v8(v+,f1Y$^be'Vדr.1MrAV#Miϡ%?|O}>h+_G/q#N;M]}V1E2Pϫdjǁ zM<1vEи;Q@i;)(JTyk59#f;%}889&eh{A9CŻ_W|2Mk0l$SvYc7شβ:Ȣ`Ep o[*ӽZS|WzPzCࠓ&Fn }o{mAm%y~y\ oCL]1ZJOzK DmV!7D| u?Иp6 XAGKB@_I7nt) Bd$-BD S|I\S>)!}O'#6/ M>\wJԛlgTO]'&sp#BA[Mkf5잹=!0#TqW{Z.3Ӄ]Y b\U *XG#}r οGdF;`VBCZmmb`^1KUkܱ%f°zE&jpbCL@7Ί:P3@ecyS^.dE:?ť?.xRwUQfdW&pyKf;`&"%GJ_k)~z^W&)CaZ@#q@+(]d/_SfSz'+UdS5!m>žNz ;jpG+*hS.G!Cs2 tѾ_&Sx8&~$r$v3aHr~˺E}aK*(H;f]SQ=u=\ZD5U1Ӝl@ߩڪ'R%ݯ֝d4T4?FqP_>.i0 %9Mb+A)5\%@`3KZ13lȫƂCK6í.~}FI*b-,v;mOF,gD駃z-g!$bbh_`tfQ޺w>UY>=@u@"70)gHE\H`/⚲(fm0Z^u;!&P$ԧw2+92䦣ftc(sV:[C]RZpO0T@MW\s{R*f^WwcNx̑]= JDx_PD;TҤ=Ľx.4|PHSelp h?^tԕ_COFaf( *LőL`A\fCgC~.}%>e .iR+/r`!<锶KyP+1Bۦo&x:SoAd,OH>S^R<e !Y$:8'7hDO|I%zw/'e d>Dzr,O:Oh4hKݭ,jHݡvghinDf;X?H}L%,4S_VC"'QcK5"gqsmzk,YVd57D;1i8{Nkck1xkFO&\O1 0W؋OJ.]2!,M!F*qQro-Y]q.SJ*<F6#u1l'w}M6|{Yg# V) 2@C((U+"k=1D%`MIt\3>nNc8j$̫z>. X̚#_TD˭;@ CT߀8%7yTϫË-#~#*Y ]ZБJuS_73Ui5섒ҍxƂ~XDA!ߔ4eG[$@zPr{T R0g=a#bNغoS@6d)nE_7*%V OklDHU(|qXh])c,˚ ƭ'/0䛘=;D T*>Զg,M~\,ͬKն#3SaX(ur>YRTQ"/gvA/\ߦ_foIC~>/?994 ~ApU1(5v|O>pBR y_ "Gbj388+ի@~w</7t3_Ik2tO#OA^6]F8{ 1K?t!;E/itgXkajzxbVrD8Aw>lۡԷ>2d]Ƚ',pۤߜKӍTs2yVa?̻ŕ>T[S#<PF@ke!j0B9uHȁf*FN ~M-1PIU<kV1kjv]?)y5J|GSJ]I3/W5B+vì[-9h{s.ȇ)cAu1 m ,G1nI\le}}8L}NLq}@-2sL¦dlufC8d-y$6a2JFm2NF&w|.t<"a/%׼Jݣgh cN/stjY:[1~Q8]RP땇Y80J98T41M,3 qvs\MB6EyH1X;SݞHũî4+vvWR#vΟk*A}++1 !26!EvMHZԾ硯|%@V$v%}ƹTQ<GE_ǬJ3.v.zagtZ0C$:V/vq4}!W ,^~G1'8gb{6^ A[ ¦Nθ||`͢d{MGgK)aläϜ3A&BP$f/rD ?Ij7,H? J35qm7?n@0uHsFÔ!hqsBθ2Fވ*G^z6 5-][KV8Hv&^jZ0!xR͐N$KK:Aj9twDd$zЩH#8W h-|ˏj$Ң>~}O-#n,#AM2Gk ٕ"$hc'*Ё,7$n΄<KA{dI8i{t#` ƕkF"ѫm]`ՄFq}g|%3Zo2jI}au'9VڪgZ(p@a"^uICjRt7@1֎)9EǢ,vSӡ7x-͂s!=ziR;l)j/sŶn.w(!EGKHƼ; ǣ4,~ssLl]<\%|O֪%*͜I=8Ȩ'\"F9D~NF}颌:|֦HK[q](N3g-θca1g⯃.,$}ZeOCp9:&ԕ^/Nc&K[d"=۸hx:E,<_=-5%ʢDwM,>،J&rwX6쌋{L EJ*TF$.Jʊ,KϘwiC?OMz|H}.Snp^,uC+>q(F+ȩK+`rEVW&.O4}lL5 egk'nHةRbͶz\A'/ra,f?~V@v*#4qxٸt#QX׳U(Zֆ8cC061+q[S柽c^'c̻Dyr٩(}۴TLP=k$f#/ABQ5⧿b㗂"OSG~/oc_IkjğMDU% #GdO4cY;^磛p&#!"+K;IDz*4i8Ͽ´vSU0MAHϩe=n: T[)#g?)xzƒd8ڠ[<,=b6vĘl . 3]LX{uҲP.yCsS6CJ'Q;+7apRN;@"sɮcRp5ɡ!R&U;J=k_HaxXlha]Gp»2ʫ%<O88 zQ;R,V<+ҺOKoJH5ys5гږpg۫8wM &qܪx^O->1T`7Mr3,5:QFƒir}k5486!kƁ6,.mZқ>bÀ:ǞzGv IiccOavtbC~3dnx)K.`jC\~Hr%<q4_fyt9b+tֽoː.0Grn]k1U2i@XSh((j/wa'Q(VTjI_٥6FR#* )8Ӏ!S"9TT>˓g(FM{c@ Ap }47J|o#bD,6ʮ$T88Z>Xol%ك:ْ[דq>Xa^Yyd"ɱ![FےVX84 GY9+P,\te%/*U'Αr˱ӽI^a}uXF?ZsN%! ψ@|j~l聲"ճ{L|l^ǂwTWNFZ#^kRs(~}I@,-1G<6zw_MHڟ%y&s56Q9~bG@QZ 7c2ctٽA;!/z4A/G ' 40r1βr&F0NbV/rr-YT!SL$'hai"qfJzY_5;cPX_+q+<*w]o6X4ˣNMaݭ))bG_߿gK\yWdP ûPۢZЅEQD^$L'/O 2'@fHJ}z3̪VnT3](F)yן>j!iCK1m%4`1FVܽhq[-#uuӭ;'TwK9g,Ȫ;㇚6|V4Hp<Gr%ux|&Ӎk~6rx2`YU$NxkI$9W|S8#}Gh*ͷ1 ղ!t'M)HCj>M|U n,ض~AKQN"l&Z"_`~3t6oE#9Ȳ`q u"\\5A!$:|@Gߡq')R LD}ШNlQ/2T<%C:hbS [OY\gc<vyc>\g^zxr3Ny7ٽ5[hMNj0%BM0lm7:Lfþ=! LFȶ`J7{J_c(.Q"y֨Q/Ʊe]@D-o,RO㻚 (%{q¼tz*$9LV:٠1wyńǰYsϋU' ͅǴ'4ƹzX˷cy%Z1x\u'=NK'[ Թ,LӚ3Ijwyc#~4@Fǵ?S_2So4d=^SPK<$qX&e|Ux9~/6cf9+c%OAv<** Ab'ǜ%Phky#RwozAM&H"RS[w$(t/nг|ƪ-CR}IFn kTˉ"'\ !l7#!D圥83ʎku\A<Q"M2S<d<5R^b)a3:BԬ'.0 4`{*+&Q0%MfZu6 .IO8 3?HX=>bXzZ%Hӿ>kJҥDsۋ~wcgi2ADm~,X3h+ ^3 IN1'{·]Zx Cx 攉YseKF*05*S|B?l^e&OFN(btNϕ{>2oNK0}6');rPK*1JҚZې#U_/Xz@tAV6t3yt}SyHv+׀o2twb0aۦes (,dK;Dq Y*[ IpP.1bneW=TD;ì,1k"7p%; x?p[cҶ7r̙'|DQyEa]竬u,AqRk?/ 26e>WyTBc:e41wXHB׿zrAڲE~:1hBYԷ,m? U}yc_zาgK&6.c򎗎9&vfH96Sn5;ë]q06jwU_Ss >=}Ӌ52,3*@1EA bhmURRH`3Dy}!օJ@`.I%fS42LO%>'@!]`\OL+o{ɠBDܦP:m!:T ╤_<#tMnbB-=RI,JS7Pi7wz;.z?wD!YzN9~٩R7vX9P11cMʘl9gGW_!7T&kw_luyÃح*~(jm9U8Ұ7QⱆSIƨpņ`8XYvE9 CmPWMNPέbgj_&yZi7 7qoODXZj "P@dzx=GǶ&e#О.2܉t>8`VclORG\D1Zbn:4W&4P0+KoP_BǆNDrRxHwi k- פgOT]`ə]VPs! D34M<HW1B@N1E{@0]&_Tv, /~P)eX;у &uaRs/G»`3P6Ƥiv],ەFa̼P ɕ Pʌ&ʆNϞĭVɗPnwa_o?]I%+G7`kM'X~2fI'Hfy/55x?Knj/|%1BԠ ]ӚCh"}*:Z<Q.e"腏Y^̋yk+M~F[͙GeuO9H3<mLLAg:|-:~).1ŒnT0&Yٌ[fܹQC뢑FMЌk$X6*`b`azvy\g[&iKASS?b,Y"ȳnsj&%H(9ޭs*Z:ezЦ$xZȶ>'IM=\$L)؛)heY2=;CwMG.yW8۲>r?f;A{?͜wpnS`@"xrQ+ӖO2qqT#R/bn}³*O3߁[<L") ڟwHG?L7S@BwyqT`XEgG;L\YI̆R'94f߰"byQd1Vq-g7ܮQ